//*Spectre Model Format
simulator lang=spectre  insensitive=yes
// *
// *
// * no part of this file can be released without the consent of smic.
// *
// *******************************************************************************************
// * 0.18um mixed signal 1p6m with mim salicide 1.8v/3.3v rf spice model (for spectre only)  *
// *******************************************************************************************
// *
// * release version    : 1.9
// *
// * release date       : 20/03/2008
// *
// * simulation tool    : Cadence spectre V6.0
// *
// * model type         :
// *   mosfet           : bsim3v3.2
// *   junction diode   : spectre level 1
// *
// * model and subcircuit name         :
// *   mosfet           :
//*        *------------------------------------------*
//*        |     MOSFET model   |   1.8V   |   3.3V   |
//*        |==========================================|
//*        |        NMOS        |  n18_rf  |  n33_rf  |
//*        *------------------------------------------*
//*        |       DNWMOS       | dnw18_rf | dnw33_rf |
//*        *------------------------------------------*
//*        |        PMOS        |  p18_rf  |  p33_rf  |
//*        *------------------------------------------*
//*
//*        *--------------------------------------------------*
//*        |     MOSFET subckt  |     1.8V     |    3.3V      |
//*        |==================================================|
//*        |        NMOS        |  n18_ckt_rf  |  n33_ckt_rf  |
//*        *--------------------------------------------------*
//*        |       DNWMOS       | dnw18_ckt_rf | dnw33_ckt_rf |
//*        *--------------------------------------------------*
//*        |        PMOS        |  p18_ckt_rf  |  p33_ckt_rf  |
//*        *--------------------------------------------------*
//*
//*************************
//* 1.8V RF NMOS Subcircuit
//*************************
//* 1=drain, 2=gate, 3=source, 4=bulk
//* lr=gate length, wr=finger width, nf=finger number
subckt n18_ckt_rf (1 2 3 4) 
//* scalable unit parameter
//* euqivalent circuit saclable parameter
parameters lr=0.18u wr=10u nf=64
+cgdo_n18     = max((0+dcgdo_n18_rf), 0)
+cgso_n18     = max((0+dcgso_n18_rf), 0)
+rdc_n18       = max((0.1008/(wr*1e6)+0.102*nf), 1e-3)
+rsc_n18       = max((0.1008/(wr*1e6)+0.102*nf), 1e-3)
+Pvag_n18     = -((0.0733*lr*1000000-0.0117)*pwr(wr*1000000,2)+(-1.02*lr*1000000+0.1431)*wr*1000000+(3.3992*lr*1000000-0.2917))*pwr(nf,(0.0508*lr*1000000-0.0097)*pwr(wr*1000000,2)+(-0.3633*lr*1000000+0.1088)*wr*1000000+(-0.24*lr*1000000+0.0165))
+Cj_n18       = max((0+dcj_n18_rf), 0)
+Cjsw_n18     = max((0+dcjsw_n18_rf), 0)
//*****************************************
lgate       (2 20)  inductor   l=1p
rgate       (20 21) resistor   r=max(((724.84*pwr(lr*1e6,2)-356.18*lr*1e6+50.477)+(-72.591*pwr(lr*1e6,2)+34.823*lr*1e6-4.3737)*wr*1e6+(-709.9*pwr(lr*1e6,2)+340.42*lr*1e6-49.734)/(wr*1e6))+((-5161.5*pwr(lr*1e6,2)+1999.2*lr*1e6-33.119)+(531.35*pwr(lr*1e6,2)-224.13*lr*1e6+12.828)*wr*1e6+(3902.6*pwr(lr*1e6,2)-164.08*lr*1e6+386.39)/(wr*1e6))/nf,1e-3)
cgd_ext     (20 11) capacitor  c=max((((0.6677*pwr(lr*1e6,2)-0.4222*lr*1e6+0.0529)*pwr(wr*1e6,2)+(-5.7464*pwr(lr*1e6,2)+3.8016*lr*1e6-0.1298)*wr*1e6+(3.275*pwr(lr*1e6,2)-2.272*lr*1e6+0.6075))*nf+((-3.5823*pwr(lr*1e6,2)+2.4353*lr*1e6-0.3546)*pwr(wr*1e6,2)+(30.068*pwr(lr*1e6,2)-20.101*lr*1e6+2.8423)*wr*1e6+(-23.613*pwr(lr*1e6,2)+15.794*lr*1e6-1.9974)))*1e-15, 1e-18)
cgs_ext     (20 31) capacitor  c=max((((0.0651*pwr(lr*1e6,2)-0.0346*lr*1e6+0.004)*pwr(wr*1e6,2)+(-0.701*pwr(lr*1e6,2)+0.3523*lr*1e6-0.0371)*wr*1e6+(1.0807*pwr(lr*1e6,2)-0.5396*lr*1e6+0.061))*pwr(nf,2)+((-0.1448*pwr(lr*1e6,2)-0.1172*lr*1e6+0.0525)*pwr(wr*1e6,2)+(1.1016*pwr(lr*1e6,2)+2.1538*lr*1e6-0.8227)*wr*1e6+(-11.232*pwr(lr*1e6,2)+1.8929*lr*1e6+0.7917))*nf+((-2.1156*pwr(lr*1e6,2)+2.368*lr*1e6-0.5178)*pwr(wr*1e6,2)+(33.552*pwr(lr*1e6,2)-34.449*lr*1e6+6.9433)*wr*1e6+(-54.224*pwr(lr*1e6,2)+52.226*lr*1e6-7.2535)))*1e-15, 1e-18)
cds_ext     (15 31) capacitor  c=max((((1.2656*pwr(lr*1e6,2)-0.8625*lr*1e6+0.1269)*pwr(wr*1e6,2)+(-14.055*pwr(lr*1e6,2)+8.8032*lr*1e6-0.7362)*wr*1e6+(16.189*pwr(lr*1e6,2)-11.156*lr*1e6+1.6503))*nf+((-6.6026*pwr(lr*1e6,2)+3.9526*lr*1e6-0.3798)*pwr(wr*1e6,2)+(76.57*pwr(lr*1e6,2)-47.009*lr*1e6+4.7061)*wr*1e6+(-74.026*pwr(lr*1e6,2)+47.818*lr*1e6-4.9076)))*1e-15, 1e-18)
rds         (11 15) resistor   r=0.01
ldrain      (1 11)  inductor   l=1p
lsource     (3 31)  inductor   l=1p
//*****************************************
djdb (12 11) ndio18_rf area=nf/2*wr*(0.8-0.14)*1e-6  pj=(1+1.2547e-7/wr)*nf*wr
djsb (32 31) ndio18_rf area=wr*(0.8-0.07)*2*1e-6+(nf/2-1)*wr*(0.8-0.14)*1e-6  pj=(1+1.2547e-7/wr)*nf*wr
//*****************************************
rsub1      (41  4)  resistor   r=max(((-173.25*lr*1e6+30.089)*pwr(wr*1e6,2)+(1110*lr*1e6-81.61)*wr*1e6+(-7105.6*lr*1e6+1996.8))*pwr(nf,1.7573*lr*1e6-0.8936), 1e-3)
rsub2      (41  12) resistor   r=max(((-2.52*lr*1e6+0.4097)*pwr(wr*1e6,2)+(16.422*lr*1e6-2.5923)*wr*1e6+(-21.611*lr*1e6+2.9913))*nf+((43.175*lr*1e6-5.3693)*pwr(wr*1e6,2)+(-232.18*lr*1e6+24.958)*wr*1e6+(399*lr*1e6+31.75)), 1e-3)
rsub3      (41  32) resistor   r=max(((-318.02*lr*1e6+94.625)*pwr(wr*1e6,2)+(4878.4*lr*1e6-1449.3)*wr*1e6+(-18771*lr*1e6+5701.4))+((1288.3*lr*1e6-389.18)*pwr(wr*1e6,2)+(-18714*lr*1e6+5649.5)*wr*1e6+(59353*lr*1e6-18005))/NF, 1e-3)
//* --------- ideal mos transistor ----------------------
main (11 21 31 41) n18_rf l=lr w=wr m=nf ad = 0 as = 0 pd = 0 ps = 0
// * mos model
simulator lang=spectre  insensitive=yes
model n18_rf bsim3v3 {
1: type=n
// **************************************************************
// *               model flag parameters
// **************************************************************
+lmin = 1.6e-007 lmax = 5.2e-007 wmin = 4.8e-007 
+wmax = 1.002e-005 version = 3.24 mobmod = 1 
+capmod = 3 nqsmod = 0 binunit = 2 
// **************************************************************
// *               general model parameters
// **************************************************************
+tnom = 25 xl = (1.8e-008+DXL_N18_RF) xw = (0+DXW_N18_RF) 
+tox = (3.87e-009+DTOX_N18_RF) toxm = 3.87e-009 wint = -1.4450482e-09 
+lint = 1.5757085e-08 dlc = 8.5e-009 dwc = 4.5e-008 
+hdif = 2e-007 ldif = 7e-008 ll = 2.6352781e-016 
+wl = -2.3664573e-016 lln = 1.1205959 wln = 1.0599999 
+lw = -2.2625584e-016 ww = -3.640969e-014 lwn = 0.92 
+wwn = 0.8768474 lwl = -2.0576711e-022 wwl = -4e-021 
+cgso = (Cgso_n18) cgdo = (Cgdo_n18) xpart = 1 
+rdc =(rdc_n18) rsc=(rsc_n18)
// **************************************************************
// *               expert parameters
// **************************************************************
+vth0 = (0.39+DVTH_N18_RF) wvth0 = -2.9709472e-008 pvth0 = (5e-016+DPVTH0_N18_RF)
+k1 = 0.6801043 wk1 = -2.489684e-008 pk1 = 1.3e-015 
+k2 = -0.049978 k3 = 10 k3b = -3 
+nlx = 7.545103e-008 dvt0 = 1.3 dvt1 = 0.5771635 
+dvt2 = -0.1717554 dvt0w = 0 dvt1w = 0 
+dvt2w = 0 nch = 3.8694e+017 voff = -0.103 
+lvoff = -3.3e-009 nfactor = 1.25 lnfactor = 4.5e-008 
+cdsc = 0 cdscb = 0 cdscd = 0.0001 
+cit = 0 u0 = 0.032953 lu0 = 2.3057663e-011 
+wu0 = -3.1009695e-009 ua = -1.03e-009 lua = 7.734979e-019 
+pua = -1e-024 ub = 2.3667e-018 uc = 1.2e-010 
+puc = 1.5e-024 xj = 1.6e-007 w0 = 5.582015e-007 
+prwg = 0.4 prwb = -0.24 wr = 1 
+rdsw = 55.54972 a0 = 0.83 ags = 0.32 
+a1 = 0 a2 = 0.99 b0 = 6e-008 
+b1 = 0 vsat = 82500 pvsat = -8.3e-010 
+keta = -0.003 lketa = -1.7e-009 dwg = -5.96e-009 
+dwb = 4.5e-009 alpha0 = 1.7753978e-008 beta0 = 11.168394 
+pclm = 1.2 ppclm = 2.9999999e-015 pdiblc1 = 0.025 
+pdiblc2 = 0.0038 ppdiblc2 = 2.7000001e-016 pdiblcb = 0 
+drout = 0.56 
+pvag    = (pvag_n18)
+pscbe1 = 3.45e+008 
+pscbe2 = 1e-006 delta = 0.01 eta0 = 0.028000001 
+etab = -0.027000001 dsub = 0.4 elm = 5 
+alpha1 = 0.1764 lalpha1 = 7.625e-009 
// **************************************************************
// *               capacitance parameters
// **************************************************************
+cf = 0 acde = 0.64 moin = 24 
+noff = 1.2025 cj = (Cj_n18) 
+cjsw = (Cjsw_n18) cgbo=0 
// **************************************************************
// *               temperature parameters
// **************************************************************
+kt1 = -0.2572866 kt1l = -1e-009 kt2 = -0.04 
+ute = -1.55 ua1 = 1.76e-009 lua1 = 6e-018 
+wua1 = -1.1e-016 pua1 = -5e-025 ub1 = -2.4e-018 
+uc1 = -1e-010 luc1 = 1.6999999e-017 puc1 = -3e-024 
+prt = -55 at = 37000 pat = -7.5e-010 
// **************************************************************
// *               noise parameters
// **************************************************************
+noimod = 2 noia = 8.2282E+19 noib = 1.3327E+04 
+noic = -2.4937E-14 em = 1.7767E+07 ef = 0.818 
}
// **************************************************************
model ndio18_rf diode
+is = 3.52e-07 allow_scaling = yes dskip = no imax=1e20 isw = 1e-15 
+n = 1.0233 ns = 1.0233 ik = 1.52e+05 ikp = 4.32e-04 
+bv = 11.0 ibv = 277.78 
+trs = 1.51e-03 eg = 1.16 tnom = 25.0 
+xti = 3.0 
+cjo = 9.68e-04 
+cjsw = 4.18e-10 
+rs = 8.89e-09 
+mj = 0.346 vj = 0.7 mjsw = 0.538 
+vjsw = 1 cta = 0.000842 ctp = 0.000669 
+pta = 0.00147 ptp = 0.000868 tlev = 1 
+tlevc = 1 fc = 0 
ends n18_ckt_rf
//***************************
//* 1.8V RF DNWMOS Subcircuit
//***************************
//* 1=drain, 2=gate, 3=source, 4=bulk, 5=DNW
//* lr=gate length, wr=finger width, nf=finger number, laddr=DNW diode add length, waddr=DNW didoe add width
subckt dnw18_ckt_rf (1 2 3 4 5) 
//* scalable unit parameter
//* euqivalent circuit saclable parameter
parameters lr=0.18u wr=10u nf=64 laddr=10u waddr=10u
+cgdo_n18     = max((0+dcgdo_n18_rf), 0)
+cgso_n18     = max((0+dcgso_n18_rf), 0)
+rdc_n18       = max((0.1008/(wr*1e6)+0.102*nf), 1e-3)
+rsc_n18       = max((0.1008/(wr*1e6)+0.102*nf), 1e-3)
+Pvag_n18     = -((0.0733*lr*1000000-0.0117)*pwr(wr*1000000,2)+(-1.02*lr*1000000+0.1431)*wr*1000000+(3.3992*lr*1000000-0.2917))*pwr(nf,(0.0508*lr*1000000-0.0097)*pwr(wr*1000000,2)+(-0.3633*lr*1000000+0.1088)*wr*1000000+(-0.24*lr*1000000+0.0165))
+Cj_n18       = max((0+dcj_n18_rf), 0)
+Cjsw_n18     = max((0+dcjsw_n18_rf), 0)
//*****************************************
lgate       (2 20)  inductor   l=1p
rgate       (20 21) resistor   r=max(((724.84*pwr(lr*1e6,2)-356.18*lr*1e6+50.477)+(-72.591*pwr(lr*1e6,2)+34.823*lr*1e6-4.3737)*wr*1e6+(-709.9*pwr(lr*1e6,2)+340.42*lr*1e6-49.734)/(wr*1e6))+((-5161.5*pwr(lr*1e6,2)+1999.2*lr*1e6-33.119)+(531.35*pwr(lr*1e6,2)-224.13*lr*1e6+12.828)*wr*1e6+(3902.6*pwr(lr*1e6,2)-164.08*lr*1e6+386.39)/(wr*1e6))/nf,1e-3)
cgd_ext     (20 11) capacitor  c=max((((0.6677*pwr(lr*1e6,2)-0.4222*lr*1e6+0.0529)*pwr(wr*1e6,2)+(-5.7464*pwr(lr*1e6,2)+3.8016*lr*1e6-0.1298)*wr*1e6+(3.275*pwr(lr*1e6,2)-2.272*lr*1e6+0.6075))*nf+((-3.5823*pwr(lr*1e6,2)+2.4353*lr*1e6-0.3546)*pwr(wr*1e6,2)+(30.068*pwr(lr*1e6,2)-20.101*lr*1e6+2.8423)*wr*1e6+(-23.613*pwr(lr*1e6,2)+15.794*lr*1e6-1.9974)))*1e-15, 1e-18)
cgs_ext     (20 31) capacitor  c=max((((0.0651*pwr(lr*1e6,2)-0.0346*lr*1e6+0.004)*pwr(wr*1e6,2)+(-0.701*pwr(lr*1e6,2)+0.3523*lr*1e6-0.0371)*wr*1e6+(1.0807*pwr(lr*1e6,2)-0.5396*lr*1e6+0.061))*pwr(nf,2)+((-0.1448*pwr(lr*1e6,2)-0.1172*lr*1e6+0.0525)*pwr(wr*1e6,2)+(1.1016*pwr(lr*1e6,2)+2.1538*lr*1e6-0.8227)*wr*1e6+(-11.232*pwr(lr*1e6,2)+1.8929*lr*1e6+0.7917))*nf+((-2.1156*pwr(lr*1e6,2)+2.368*lr*1e6-0.5178)*pwr(wr*1e6,2)+(33.552*pwr(lr*1e6,2)-34.449*lr*1e6+6.9433)*wr*1e6+(-54.224*pwr(lr*1e6,2)+52.226*lr*1e6-7.2535)))*1e-15, 1e-18)
cds_ext     (15 31) capacitor  c=max((((1.2656*pwr(lr*1e6,2)-0.8625*lr*1e6+0.1269)*pwr(wr*1e6,2)+(-14.055*pwr(lr*1e6,2)+8.8032*lr*1e6-0.7362)*wr*1e6+(16.189*pwr(lr*1e6,2)-11.156*lr*1e6+1.6503))*nf+((-6.6026*pwr(lr*1e6,2)+3.9526*lr*1e6-0.3798)*pwr(wr*1e6,2)+(76.57*pwr(lr*1e6,2)-47.009*lr*1e6+4.7061)*wr*1e6+(-74.026*pwr(lr*1e6,2)+47.818*lr*1e6-4.9076)))*1e-15, 1e-18)
rds         (11 15) resistor   r=0.01
ldrain      (1 11)  inductor   l=1p
lsource     (3 31)  inductor   l=1p
//*****************************************
djdb (12 11) ndio18_rf area=nf/2*wr*(0.8-0.14)*1e-6  pj=(1+1.2547e-7/wr)*nf*wr
djsb (32 31) ndio18_rf area=wr*(0.8-0.07)*2*1e-6+(nf/2-1)*wr*(0.8-0.14)*1e-6  pj=(1+1.2547e-7/wr)*nf*wr
djdnw (4 5) diobpw_rf area=(2*0.8*1e-6+lr*nf+0.8*1e-6*(nf-1)+2*laddr)*(wr+2*waddr) pj=2*(2*0.8*1e-6+lr*nf+0.8*1e-6*(nf-1)+wr+2*(laddr+waddr))
//*****************************************
rsub1      (41  4)  resistor   r=max(((-173.25*lr*1e6+30.089)*pwr(wr*1e6,2)+(1110*lr*1e6-81.61)*wr*1e6+(-7105.6*lr*1e6+1996.8))*pwr(nf,1.7573*lr*1e6-0.8936), 1e-3)
rsub2      (41  12) resistor   r=max(((-2.52*lr*1e6+0.4097)*pwr(wr*1e6,2)+(16.422*lr*1e6-2.5923)*wr*1e6+(-21.611*lr*1e6+2.9913))*nf+((43.175*lr*1e6-5.3693)*pwr(wr*1e6,2)+(-232.18*lr*1e6+24.958)*wr*1e6+(399*lr*1e6+31.75)), 1e-3)
rsub3      (41  32) resistor   r=max(((-318.02*lr*1e6+94.625)*pwr(wr*1e6,2)+(4878.4*lr*1e6-1449.3)*wr*1e6+(-18771*lr*1e6+5701.4))+((1288.3*lr*1e6-389.18)*pwr(wr*1e6,2)+(-18714*lr*1e6+5649.5)*wr*1e6+(59353*lr*1e6-18005))/NF, 1e-3)
//* --------- ideal mos transistor ----------------------
main (11 21 31 41) dnw18_rf l=lr w=wr m=nf ad = 0 as = 0 pd = 0 ps = 0
// * mos model
model dnw18_rf bsim3v3 {
1: type=n
// **************************************************************
// *               model flag parameters
// **************************************************************
+lmin = 1.6e-007 lmax = 5.2e-007 wmin = 4.8e-007 
+wmax = 1.002e-005 version = 3.24 mobmod = 1 
+capmod = 3 nqsmod = 0 binunit = 2 
// **************************************************************
// *               general model parameters
// **************************************************************
+tnom = 25 xl = (1.8e-008+DXL_N18_RF) xw = (0+DXW_N18_RF) 
+tox = (3.87e-009+DTOX_N18_RF) toxm = 3.87e-009 wint = -1.4450482e-09 
+lint = 1.5757085e-08 dlc = 8.5e-009 dwc = 4.5e-008 
+hdif = 2e-007 ldif = 7e-008 ll = 2.6352781e-016 
+wl = -2.3664573e-016 lln = 1.1205959 wln = 1.0599999 
+lw = -2.2625584e-016 ww = -3.640969e-014 lwn = 0.92 
+wwn = 0.8768474 lwl = -2.0576711e-022 wwl = -4e-021 
+cgso = (Cgso_n18) cgdo = (Cgdo_n18) xpart = 1 
+rdc =(rdc_n18) rsc=(rsc_n18)
// **************************************************************
// *               expert parameters
// **************************************************************
+vth0 = (0.39+DVTH_N18_RF) wvth0 = -2.9709472e-008 pvth0 = (5e-016+DPVTH0_N18_RF)
+k1 = 0.6801043 wk1 = -2.489684e-008 pk1 = 1.3e-015 
+k2 = -0.049978 k3 = 10 k3b = -3 
+nlx = 7.545103e-008 dvt0 = 1.3 dvt1 = 0.5771635 
+dvt2 = -0.1717554 dvt0w = 0 dvt1w = 0 
+dvt2w = 0 nch = 3.8694e+017 voff = -0.103 
+lvoff = -3.3e-009 nfactor = 1.25 lnfactor = 4.5e-008 
+cdsc = 0 cdscb = 0 cdscd = 0.0001 
+cit = 0 u0 = 0.032953 lu0 = 2.3057663e-011 
+wu0 = -3.1009695e-009 ua = -1.03e-009 lua = 7.734979e-019 
+pua = -1e-024 ub = 2.3667e-018 uc = 1.2e-010 
+puc = 1.5e-024 xj = 1.6e-007 w0 = 5.582015e-007 
+prwg = 0.4 prwb = -0.24 wr = 1 
+rdsw = 55.54972 a0 = 0.83 ags = 0.32 
+a1 = 0 a2 = 0.99 b0 = 6e-008 
+b1 = 0 vsat = 82500 pvsat = -8.3e-010 
+keta = -0.003 lketa = -1.7e-009 dwg = -5.96e-009 
+dwb = 4.5e-009 alpha0 = 1.7753978e-008 beta0 = 11.168394 
+pclm = 1.2 ppclm = 2.9999999e-015 pdiblc1 = 0.025 
+pdiblc2 = 0.0038 ppdiblc2 = 2.7000001e-016 pdiblcb = 0 
+drout = 0.56 
+pvag    = (pvag_n18)
+pscbe1 = 3.45e+008 
+pscbe2 = 1e-006 delta = 0.01 eta0 = 0.028000001 
+etab = -0.027000001 dsub = 0.4 elm = 5 
+alpha1 = 0.1764 lalpha1 = 7.625e-009 
// **************************************************************
// *               capacitance parameters
// **************************************************************
+cf = 0 acde = 0.64 moin = 24 
+noff = 1.2025 cj = (Cj_n18) 
+cjsw = (Cjsw_n18)  cgbo=0
// **************************************************************
// *               temperature parameters
// **************************************************************
+kt1 = -0.2572866 kt1l = -1e-009 kt2 = -0.04 
+ute = -1.55 ua1 = 1.76e-009 lua1 = 6e-018 
+wua1 = -1.1e-016 pua1 = -5e-025 ub1 = -2.4e-018 
+uc1 = -1e-010 luc1 = 1.6999999e-017 puc1 = -3e-024 
+prt = -55 at = 37000 pat = -7.5e-010 
// **************************************************************
// *               noise parameters
// **************************************************************
+noimod = 2 noia = 8.2282E+19 noib = 1.3327E+04 
+noic = -2.4937E-14 em = 1.7767E+07 ef = 0.818 
}
// **************************************************************
model ndio18_rf diode
+is = 3.52e-07 allow_scaling = yes dskip = no imax=1e20 isw = 1e-15 
+n = 1.0233 ns = 1.0233 ik = 1.52e+05 ikp =4.32e-04  
+bv = 11.0 ibv = 277.78 
+trs = 1.51e-03 eg = 1.16 tnom = 25.0 
+xti = 3.0 
+cjo = 9.68e-04 
+cjsw = 4.18e-10 
+rs = 8.89e-09 
+mj = 0.346 vj = 0.7 mjsw = 0.538 
+vjsw = 1 cta = 0.000842 ctp = 0.000669 
+pta = 0.00147 ptp = 0.000868 tlev = 1 
+tlevc = 1 fc = 0 
// * DNW junction diode model
model diobpw_rf diode
+level = 1 is = 1.50e-07 allow_scaling = yes dskip = no imax=1e20 isw = 1.00e-15 
+n = 1.0213 ns = 1.0213 rs = 2.51e-08 ik = 2.40e+05 ikp = 1.60E-03 
+bv = 15.0 ibv = 1.04e+02 
+trs = 1.77e-03 cta = 0.0012 ctp = 0.00107 
+eg = 1.16 tnom = 25.0 pta = 0.0019 
+ptp = 0.00193 xti = 3.0 cjo = 0.000536 
+mj = 0.343 vj = 0.693 cjsw = 3.22e-10 
+mjsw = 0.361 vjsw = 0.715 tlev = 1 
+tlevc = 1 area = 9.6e-9 perim = 4e-4 
+fc = 0 
ends dnw18_ckt_rf
//*************************
//* 1.8V RF PMOS Subcircuit
//*************************
//* 1=drain, 2=gate, 3=source, 4=bulk
//* lr=gate length, wr=finger width, nf=finger number
subckt p18_ckt_rf (1 2 3 4) 
//* scalable unit parameter
//* euqivalent circuit saclable parameter
parameters lr=0.18u wr=10u nf=2
+cgdo_p18_rf     = max((0+dcgdo_p18_rf), 0)
+cgso_p18_rf     = max((0+dcgso_p18_rf), 0)
+cj_p18_rf     = max((0+dcj_p18_rf), 0)
+cjsw_p18_rf     = max((0+dcjsw_p18_rf), 0)
+rdc_p18_rf       = max((32.428*exp(-0.3464*wr*1e6))*pwr(nf, 0.1502*exp(0.1353*wr*1e6)), 1e-3)
+rsc_p18_rf       =  max((32.428*exp(-0.3464*wr*1e6))*pwr(nf, 0.1502*exp(0.1353*wr*1e6)), 1e-3)
//*****************************************
lgate       (2 20)  inductor   l=1p
rgate       (20 21) resistor   r=max((((17236*lr*lr*1e6*1e6+181.46*lr*1e6+149.85)*pwr(wr*1e6,(1.3797*lr*lr*1e6*1e6-2.4198*lr*1e6-0.48)))*pwr(nf,(0.5573*lr*lr*1e6*1e6-0.1633*lr*1e6+0.1623)*log(wr*1e6)+(-1.0151*lr*lr*1e6*1e6-0.1544*lr*1e6-0.981))), 1e-3)
cgd_ext     (20 11) capacitor  c=max((((5.375E-17*lr*lr*1e6*1e6-1.08E-17*lr*1e6+4.4E-16)*wr*1e6+(-3.9974E-16*lr*lr*1e6*1e6+6.9454E-16*lr*1e6+(1.3021E-16*lr*lr*1e6*1e6+2.0833E-17*lr*1e6+9.2031E-17)))*nf+(1.7802E-17*wr*wr*1e6*1e6-3.4928E-16*wr*1e6+6.1859E-16)), 1e-18)
cgs_ext     (20 31) capacitor  c=max((((6.2506e-17*lr*lr*1e6*1e6-2.9036e-17*lr*1e6+3.9433e-18)*exp((-2.0989*lr*lr*1e6*1e6+8.7703e-1*lr*1e6+2.6579e-1)*wr*1e6))*nf*nf+((4.4788e-16*lr*lr*1e6*1e6-4.0771e-16*lr*1e6-1.0686e-17)*wr*1e6+(-2.3431e-15*lr*lr*1e6*1e6+2.2217e-15*lr*1e6+3.6221e-16))*nf+((6.7052e-15*lr*lr*1e6*1e6-6.2642e-15*lr*1e6+2.7578e-16)*log(wr*1e6)+(-1.2255e-14*lr*lr*1e6*1e6+1.562e-14*lr*1e6-1.487e-16))), 1e-18)
cds_ext     (15 31) capacitor  c=max(((4.1455e-16*lr*lr*1e6*1e6-3.5118e-16*lr*1e6+6.4154e-17)*wr*wr*1e6*1e6+(-9.4276e-16*lr*lr*1e6*1e6+8.0336e-16*lr*1e6+1.1269e-16)*wr*1e6+(-4.1859e-16*lr*lr*1e6*1e6+9.8925e-17*lr*1e6+2.1732e-16))*nf+((-4.9953e-17*lr*1e6*lr*1e6+1.011e-16*lr*1e6+5.9634e-17)*wr*1e6+(-1.7041e-15*lr*lr*1e6*1e6+1.571e-15*lr*1e6+4.9801e-16)), 1e-18)
rds         (11 15) resistor   r=0.01
ldrain      (1 11)  inductor   l=1p
lsource     (3 31)  inductor   l=1p
//*****************************************
djdb (11 12) pdio18_rf area=(nf/2*(0.8-2*0.07)*wr)*1e-6  pj=(1+1.287e-7/wr)*(nf*wr)
djsb (31 32) pdio18_rf area=((nf/2-1)*(0.8-2*0.07)*wr+(0.8-0.07)*wr*2)*1e-6  pj=(1+1.287e-7/wr)*(nf*wr)
//*****************************************
rsub1      (41  4)  resistor   r=max((0.0023528*nf*nf-0.56425*nf+61.816), 1e-3)
rsub2      (41  12) resistor   r=max((-11.603*log(nf)+72.058), 1e-3)
rsub3      (41  32) resistor   r=max((-1065.3*log(nf)+5768.9), 1e-3)
//* --------- ideal mos transistor ----------------------
main (11 21 31 41) p18_rf l=lr w=wr m=nf ad = 0 as = 0 pd = 0 ps = 0
// * mos model
model p18_rf bsim3v3 {
1: type=p
// * general parameters
// *
**************************************************************
*               MODEL FLAG PARAMETERS 
**************************************************************
+lmin    = 1.6e-007        lmax    = 1.2e-006        wmin    = 4.8e-007        wmax    = 1.002e-005    
+version = 3.24             mobmod  = 1               capmod  = 3               nqsmod  = 0             
+binunit = 2             
**************************************************************
*               GENERAL MODEL PARAMETERS 
**************************************************************
+tref    = 25              xl      = -5.7e-009+dxl_p18_rf       xw      = 0+dxw_p18_rf          tox     = 3.74e-009+dtox_p18_rf      
+toxm    = 3.74e-009       wint    = -5e-009          lint    = 1.38e-008          dlc     = -1.5e-009     
+hdif    = 2e-007          ldif    = 7e-008          ll      = 3.4e-015        wl      = 3.59042e-015  
+lln     = 1               wln     = 1.045           lw      = -3.36e-016      ww      = -1.8999999e-015
+lwn     = 1               wwn     = 1               lwl     = 0               wwl     = -1.1205e-021  
+cgso    = cgso_p18_rf               cgdo    = cgdo_p18_rf               xpart   = 1             
**************************************************************
*               EXPERT PARAMETERS 
**************************************************************
**************************************************************
+vth0    = -0.41+dvth_p18_rf            wvth0   = 1.267542e-008   pvth0   = -1.25e-015+dpvth0_p18_rf      k1      = 0.587239      
+lk1     = 3.553211e-009   k2      = 0.007090686     k3      = 2.5999999       k3b     = 2.4862001     
+nlx     = 9e-008          dvt0    = 0.7194931       dvt1    = 0.2467441       dvt2    = 0.07808968    
+dvt0w   = 0               dvt1w   = 800000          dvt2w   = 0               nch     = 5.5e+017      
+voff    = -0.095          lvoff   = -1.7e-009       wvoff   = -1.9999999e-009  pvoff   = -1e-016       
+nfactor = 0.9             lnfactor= 1e-007          pnfactor= -5e-015         cdsc    = 0             
+cdscb   = 0               cdscd   = 0               cit     = 0               u0      = 0.008661      
+lu0     = -2e-011         wu0     = 1.381535e-010   ua      = 2.85e-010       lua     = 5.5e-018      
+pua     = -2e-024         ub      = 1e-018          uc      = -4.77e-011      wuc     = 3.1668e-017   
+puc     = -2.5e-024       ngate   = 3.168e+020      xj      = 1.7000001e-007  w0      = 0             
+prwg    = 0               prwb    = -0.4            wr      = 1               rdsw    = 455           
+a0      = 1               ags     = 0.2             a1      = 0               a2      = 0.99          
+b0      = 6.3e-008        b1      = 0               vsat    = 100000          keta    = 0.02          
+lketa   = -8.5e-009       pketa   = 5e-016          dwg     = -1.736197e-008  dwb     = 2e-008        
+alpha0  = 7e-008          beta0   = 22.8424         lbeta0  = -7.5e-008       pclm    = 0.7           
+pdiblc1 = 0               pdiblc2 = 0.007           pdiblcb = 0               drout   = 0.56          
+pvag    = 0               pscbe1  = 4e+008          pscbe2  = 1e-007          delta   = 0.01          
+eta0    = 0.04            etab    = -0.025          dsub    = 0.56            elm     = 5             
+alpha1  = 7.04917       
**************************************************************
*               CAPACITANCE PARAMETERS 
**************************************************************
+cf      = 0            cgbo=0     acde    = 0.8505076       moin    = 14.95341        noff    = 1.431824      
**************************************************************
*               TEMPERATURE PARAMETERS 
**************************************************************
+kt1     = -0.2577007      kt1l    = -8e-009         kt2     = -0.0309799      lkt2    = -3e-009       
+pkt2    = -6.533175e-016  ute     = -1.2703574      ua1     = 5.38663e-010    wua1    = 1.1e-016      
+pua1    = -2.3700001e-024  ub1     = -2.0709999e-018  uc1     = 2.0609721e-011  prt     = 90            
+at      = 10000           pat     = -1e-009       
**************************************************************
*               NOISE PARAMETERS 
**************************************************************
+noimod = 2 noia = 3.3617E+18 noib = 1.9536E+05 
+noic = 5.2658E-12 em = 6.2548E+07 ef = 1.1307E+00      
**************************************************************
*               DIODE PARAMETERS 
**************************************************************
+rsh     = 7.83        cj      = (cj_p18_rf)        
+cjsw    = (cjsw_p18_rf)    rd      = 0               rdc = rdc_p18_rf            rs      = 0        rsc  = rsc_p18_rf        
} 
// * junction diode model
model pdio18_rf diode
+level = 1 is = 1.66e-07 allow_scaling = yes dskip = no imax=1e20 isw = 1e-15 
+n = 1.0135 ns = 1.0135 rs = 8.77e-09 ik = 4.03e+05 ikp = 2.43E-03 
+bv = 11.0 ibv = 277.78 
+trs = 1.78e-03 eg = 1.16 tnom = 25.0 
+xti = 3.0 cjo = 0.00107 mj = 0.415 
+vj = 0.817 cjsw =  5.07e-10 mjsw = 0.489 
+vjsw = 0.95 cta = 0.000876 ctp = 0.000745 
+pta = 0.00153 ptp = 0.00117 tlev = 1 
+tlevc = 1 fc = 0 
ends p18_ckt_rf
//*************************
//* 3.3V RF NMOS Subcircuit
//*************************
//* 1=drain, 2=gate, 3=source, 4=bulk
//* lr=gate length, wr=finger width, nf=finger number
subckt n33_ckt_rf (1 2 3 4) 
//* scalable unit parameter
//* euqivalent circuit saclable parameter
parameters lr=0.35u wr=10u nf=2
+rdc_n33_rf      = max((86.7923*exp(-0.1713*wr*1e6)),1e-3)
+rsc_n33_rf      = max((86.7923*exp(-0.1713*wr*1e6)),1e-3)
+cgdo_n33_rf     = max((0+dcgdo_n33_rf),0)
+cgso_n33_rf     = max((0+dcgso_n33_rf),0)
+cj_n33_rf     = max((0+dcj_n33_rf), 0)
+cjsw_n33_rf     = max((0+dcjsw_n33_rf), 0)
//*****************************************
lgate       (2 20)  inductor   l=1p
rgate       (20 21) resistor   r=max((((337.44*lr*lr*1e6*1e6-636.15*lr*1e6+1247.8)*pwr(wr*1e6,(0.0345*lr*lr*1e6*1e6-0.0673*lr*1e6-0.8144)))*pwr(nf,(0.01549*lr*lr*1e6*1e6-0.02983*lr*1e6+0.10754)*log(wr*1e6)+(-0.01723*lr*lr*1e6*1e6+0.03465*lr*1e6-0.95262))),1e-3)
cgd_ext     (20 11) capacitor  c=max((((-1.019487e-18*lr*lr*1e6*1e6+2.093231E-18*lr*1e6-5.621744E-18)*wr*wr*1e6*1e6+(-7.0297E-17*lr*lr*1e6*1e6+1.4369E-16*lr*1e6+3.8644E-16)*wr*1e6+(9.4974E-18*lr*lr*1e6*1e6+3.9394E-17*lr*1e6+2.3454E-16))*nf+((-4.8156E-18*lr*lr*1e6*1e6+1.1596E-16*lr*1e6-2.1673E-17)*wr*wr*1e6*1e6+(4.816E-16*lr*lr*1e6*1e6-1.2046E-15*lr*1e6+8.1E-19)*wr*1e6+(-1.5056E-16*lr*lr*1e6*1e6+7.2245E-16*lr*1e6+2.1267E-16))),1e-18)
cgs_ext     (20 31) capacitor  c=max(((-1.7423e-17*lr*lr*1e6*1e6+3.3616E-17*lr*1e6+7.4972E-19)*wr*wr*1e6*1e6+(-8.3169E-17*lr*lr*1e6*1e6+2.8529E-16*lr*1e6+2.5325E-16)*wr*1e6+(-5.1487E-16*lr*lr*1e6*1e6+9.9831E-16*lr*1e6+3.2256E-16))*nf+((-2.5956E-17*lr*lr*1e6*1e6-2.5684E-17*lr*1e6+1.5362E-16)*wr*wr*1e6*1e6+(-3.6262E-15*lr*lr*1e6*1e6+6.3722E-15*lr*1e6-3.7861E-15)*wr*1e6+(8.4615E-15*lr*lr*1e6*1e6-1.4192E-14*lr*1e6+7.9308E-15)),1e-18)
cds_ext     (15 31) capacitor  c=max(((-8.3173e-17*lr*lr*1e6*1e6+1.4664E-16*lr*1e6-3.1474E-17)*wr*wr*1e6*1e6+(4.9488E-16*lr*lr*1e6*1e6-8.6038E-16*lr*1e6+4.8447E-16)*wr*1e6+(-6.5021E-16*lr*lr*1e6*1e6+1.1567E-15*lr*1e6-3.068E-16))*nf+((-3.2841E-18*lr*lr*1e6*1e6+1.3358E-17*lr*1e6+1.7142E-17)*wr*wr*1e6*1e6+(5.3662E-17*lr*1e6*lr*1e6-2.4561E-16*lr*1e6-3.1695E-16)*wr*1e6+(-3.2421E-16*lr*lr*1e6*1e6+1.5991E-16*lr*1e6+3.211E-16)),1e-18)
rds         (11 15) resistor   r=1m
ldrain      (1 11)  inductor   l=1p
lsource     (3 31)  inductor   l=1p
//*****************************************
djdb (12 11) ndio33_rf area=(nf/2*wr*(0.8-2*0.065))*1e-6  pj=(1+1.7977e-7/wr)*nf*wr
djsb (32 31) ndio33_rf area=(wr*(0.8-0.065)*2+(nf/2-1)*wr*(0.8-2*0.065))*1e-6  pj=(1+1.7977e-7/wr)*nf*wr
//*****************************************
rsub1      (41  4)  resistor   r=max(((0.0011*pwr(lr*1e6,0.0699)*log(wr*1e6))+(0.0064*pwr(lr*1e6,-0.1022)))*nf*nf+((-0.0197*log(lr*1e6)-0.0762)*wr*1e6+(0.2539*log(lr*1e6)-1.3244))*nf+((9.2323*lr*lr*1e6*1e6-16.353*lr*1e6+16.212)*wr*1e6+(103.21*lr*lr*1e6*1e6-183.88*lr*1e6+170.1)),1e-3)
rsub2      (41  12) resistor   r=max((0.0226*nf*nf-5.6376*nf+401.39),1e-3)
rsub3      (41  32) resistor   r=max((3062.5*pwr(nf,-0.8254)),1e-3)
//* --------- ideal mos transistor ----------------------
main (11 21 31 41) n33_rf l=lr w=wr m=nf ad = 0 as = 0 pd = 0 ps = 0
// * mos model
model n33_rf bsim3v3 {
1: type=n
// *
// * general parameters
// *
+lmin = 3.3e-7 lmax = 1.2e-6 wmin = 4.8e-7 
+wmax = 1.002e-5 tnom = 25.0 version = 3.24 
+tox = 6.65e-09+dtox_n33_rf toxm = 6.65e-09 xj = 1.6000000e-07 
+nch = 4.3441000e+17 lln = 1.0625758 lwn = 1.0101005 
+wln = 0.9810000 wwn = 0.9060000 lint = 6.3891300e-08 
+ll = -2.3305548e-15 lw = -2.4634918e-15 lwl = 2.6243002e-24 
+wint = 3.5850000e-08 wl = -1.8902563e-15 ww = -1.3000000e-14 
+wwl = -1.3027796e-20 mobmod = 1 binunit = 2 
+xl = 1e-8+dxl_n33_rf xw = 0.00+dxw_n33_rf dwg = -3.9100000e-09 
+dwb = 3.2000000e-09 
// * diode parameters
+dskip = no ldif = 6.50e-08 hdif = 2.05e-07 
+rsh = 7.08 rd = 0 rs = 0 
+rsc = rsc_n33_rf  rdc = rdc_n33_rf 
// *
// * threshold voltage parameters
// *
+vth0 = 0.695+dvth_n33_rf lvth0 = 4.0100000e-10 wvth0 = 1.0200000e-08 
+pvth0 = 8.0000000e-16+dpvth0_n33_rf k1 = 0.8451000 lk1 = 5.8182560e-10 
+wk1 = -6.2456240e-09 pk1 = 1.9938927e-15 k2 = 4.4575000e-02 
+k3 = -3.8500000 dvt0 = 9.4991400 ldvt0 = 8.0839730e-09 
+dvt1 = 0.6300000 ldvt1 = 5.5000000e-08 dvt2 = -0.1450000 
+dvt0w = 0.00 dvt1w = 0.1057000 dvt2w = 0.00 
+nlx = 2.0274594e-07 lnlx = -2.8608589e-14 w0 = 0.00 
+k3b = 0.5669292 ngate = 2.6812141e+21 
// *
// * mobility parameters
// *